*HEADING
**
** =================================
** JOB NAME: JOB 
** MODEL NAME: MODEL
** Generated by AbaqusINPwriter.jl
** ==================================
*PREPRINT, ECHO=NO, MODEL=NO, HISTORY=NO, CONTACT=NO
**
** 
** ================
** PART DEFINITIONS
** ================
**
** 
*PART, NAME=RVE-part
** 
** *****************
** Nodal information
** *****************
*NODE
*INCLUDE, INPUT="E:\workshop\toolkits\AbaqusINPwriter\test\tests_output\RVE_inp_files_common_data\nodes_info.inp"
** 
** *********************
** Elemental information
** *********************
*ELEMENT, type=C3D8, ELSET=Inclusion-C3D8
*INCLUDE, INPUT="E:\workshop\toolkits\AbaqusINPwriter\test\tests_output\RVE_inp_files_common_data\Inclusion-ele_conn_5.inp"
*NSET, NSET=Inclusion-C3D8-Nodes, ELSET=Inclusion-C3D8
*SOLID SECTION, ELSET=Inclusion-C3D8, MATERIAL=BoronFiber
,
** 
** *********************
** Elemental information
** *********************
*ELEMENT, type=C3D8, ELSET=Matrix-C3D8
*INCLUDE, INPUT="E:\workshop\toolkits\AbaqusINPwriter\test\tests_output\RVE_inp_files_common_data\Matrix-ele_conn_5.inp"
*NSET, NSET=Matrix-C3D8-Nodes, ELSET=Matrix-C3D8
*SOLID SECTION, ELSET=Matrix-C3D8, MATERIAL=AluminiumMatrix
,
*ELEMENT, type=C3D6, ELSET=Matrix-C3D6
*INCLUDE, INPUT="E:\workshop\toolkits\AbaqusINPwriter\test\tests_output\RVE_inp_files_common_data\Matrix-ele_conn_6.inp"
*NSET, NSET=Matrix-C3D6-Nodes, ELSET=Matrix-C3D6
*SOLID SECTION, ELSET=Matrix-C3D6, MATERIAL=AluminiumMatrix
,
*END PART
**
** 
** ========
** ASSEMBLY
** ========
**
*ASSEMBLY, NAME=ASSEMBLY-1
** 
** ================
** REFERENCE POINTS
** ================
**
*NODE
1000000, 0.0, 15.666426716443752, 0.0
*NSET, NSET=RP2
1000000,
*NODE
1000001, 0.0, 0.0, 12.5
*NSET, NSET=RP3
1000001,
*NODE
1000002, 15.666426716443752, 0.0, 0.0
*NSET, NSET=RP1
1000002,
**
*INSTANCE, NAME=RVE-instance, PART=RVE-part
*END INSTANCE
**
** CONSTRAINT EQUATIONS
*INCLUDE, INPUT="E:\workshop\toolkits\AbaqusINPwriter\test\tests_output\RVE_inp_files_common_data\constraint_eqns_Static3DStressAnalysis.inp"
*END ASSEMBLY
**
** 
** =============
** MATERIAL DATA
** =============
**
** 
** ====================
** AluminiumMatrix data
** ====================
**
**
*MATERIAL, NAME=AluminiumMatrix
*ELASTIC
6.83e10, 0.3
*EXPANSION
2.3e-5,
*CONDUCTIVITY
0.0,
** 
** ===============
** BoronFiber data
** ===============
**
**
*MATERIAL, NAME=BoronFiber
*ELASTIC
3.793e11, 0.1
*EXPANSION
8.1e-6,
*CONDUCTIVITY
0.0,
**
**
**
** ***********************************
**          HISTORY DATA
** ***********************************
** 
** STEP: STEP-1
** 
*STEP, NAME=STEP-1, NLGEOM=NO
*STATIC
0.25, 1.0, 1.0e-5, 0.25
** NAME: RVE - BC
** TYPE: DISPLACEMENT/ROTATION
*BOUNDARY
RP2, 1, 1, 0.12533141373155002
RP2, 2, 2, 0.0
RP2, 3, 3, 0.0
RP3, 1, 1, 0.0
RP3, 2, 2, 0.0
RP3, 3, 3, 0.0
RP1, 1, 1, 0.0
RP1, 2, 2, 0.0
RP1, 3, 3, 0.0
** 
** OUTPUT REQUESTS
** 
*RESTART, WRITE, FREQUENCY=0
** 
** FIELD OUTPUT: F-OUTPUT-1
** 
*OUTPUT, FIELD
*NODE OUTPUT
U, 
*ELEMENT OUTPUT, DIRECTIONS=YES
E, S, IVOL, SENER, 
**
*END STEP